Version 4
SHEET 1 880 680
WIRE -304 -160 -608 -160
WIRE 272 -144 192 -144
WIRE 192 -128 192 -144
WIRE -304 -80 -544 -80
WIRE 272 -32 272 -144
WIRE 64 -16 32 -16
WIRE -336 0 -608 0
WIRE 64 16 32 16
WIRE 64 64 32 64
WIRE -336 80 -544 80
WIRE 512 80 480 80
WIRE 64 96 32 96
WIRE 512 112 480 112
WIRE 64 128 32 128
WIRE 512 144 480 144
WIRE -336 160 -608 160
WIRE 64 160 32 160
WIRE 512 176 480 176
WIRE 64 208 32 208
WIRE 512 208 480 208
WIRE -336 240 -544 240
WIRE 64 240 32 240
WIRE 512 240 480 240
WIRE 64 272 32 272
WIRE 64 304 32 304
WIRE -336 320 -608 320
WIRE 64 352 32 352
WIRE 64 384 32 384
WIRE -336 400 -544 400
WIRE 272 416 272 400
WIRE 272 416 192 416
WIRE 192 432 192 416
WIRE -336 480 -608 480
WIRE -336 560 -544 560
FLAG -688 -160 0
FLAG -624 -80 0
FLAG -688 0 0
FLAG -624 80 0
FLAG -688 160 0
FLAG -624 240 0
FLAG -688 320 0
FLAG -624 400 0
FLAG -688 480 0
FLAG -624 560 0
FLAG -304 -160 conf_refselect_v
FLAG -304 -80 conf_refselect_i
FLAG -336 0 conf_vref
FLAG -336 80 conf_iref
FLAG -336 160 conf_lcl
FLAG -336 240 conf_ucl
FLAG -336 320 conf_lvl
FLAG -336 400 conf_uvl
FLAG -336 480 meas_out_v
FLAG -336 560 meas_out_i
FLAG -592 -288 0
FLAG -592 -320 0
FLAG -528 -304 high
FLAG -528 -336 low
FLAG 192 -48 0
FLAG 192 512 0
FLAG 32 64 conf_refselect_v
FLAG 32 208 conf_refselect_i
FLAG 32 96 conf_vref
FLAG 32 240 conf_iref
FLAG 32 304 conf_lcl
FLAG 32 272 conf_ucl
FLAG 32 160 conf_lvl
FLAG 32 128 conf_uvl
FLAG 32 352 meas_out_v
FLAG 32 384 meas_out_i
FLAG 32 -16 high
FLAG 32 16 high
FLAG 512 80 mode_vc
FLAG 512 112 mode_lclc
FLAG 512 144 mode_uclc
FLAG 512 176 mode_cc
FLAG 512 208 mode_lvlc
FLAG 512 240 mode_uvlc
SYMBOL limit-logic 272 176 R0
WINDOW 0 8 -216 Bottom 2
SYMATTR InstName X1
SYMBOL voltage -592 -160 R90
WINDOW 0 -32 56 VBottom 2
WINDOW 3 32 56 VTop 2
WINDOW 123 0 0 Left 0
WINDOW 39 0 0 Left 0
SYMATTR InstName V1
SYMATTR Value 10
SYMBOL voltage -528 -80 R90
WINDOW 0 -32 56 VBottom 2
WINDOW 3 32 56 VTop 2
WINDOW 123 0 0 Left 0
WINDOW 39 0 0 Left 0
SYMATTR InstName V2
SYMATTR Value -5
SYMBOL voltage -592 0 R90
WINDOW 0 -32 56 VBottom 2
WINDOW 3 32 56 VTop 2
WINDOW 123 0 0 Left 0
WINDOW 39 0 0 Left 0
SYMATTR InstName V3
SYMATTR Value 3
SYMBOL voltage -528 80 R90
WINDOW 0 -32 56 VBottom 2
WINDOW 3 32 56 VTop 2
WINDOW 123 0 0 Left 0
WINDOW 39 0 0 Left 0
SYMATTR InstName V4
SYMATTR Value 4
SYMBOL voltage -592 160 R90
WINDOW 0 -32 56 VBottom 2
WINDOW 3 32 56 VTop 2
WINDOW 123 0 0 Left 0
WINDOW 39 0 0 Left 0
SYMATTR InstName V5
SYMATTR Value 2
SYMBOL voltage -528 240 R90
WINDOW 0 -32 56 VBottom 2
WINDOW 3 32 56 VTop 2
WINDOW 123 0 0 Left 0
WINDOW 39 0 0 Left 0
SYMATTR InstName V6
SYMATTR Value 3
SYMBOL voltage -592 320 R90
WINDOW 0 -32 56 VBottom 2
WINDOW 3 32 56 VTop 2
WINDOW 123 0 0 Left 0
WINDOW 39 0 0 Left 0
SYMATTR InstName V7
SYMATTR Value 1
SYMBOL voltage -528 400 R90
WINDOW 0 -32 56 VBottom 2
WINDOW 3 32 56 VTop 2
WINDOW 123 0 0 Left 0
WINDOW 39 0 0 Left 0
SYMATTR InstName V8
SYMATTR Value 2
SYMBOL voltage -592 480 R90
WINDOW 0 -32 56 VBottom 2
WINDOW 3 32 56 VTop 2
WINDOW 123 0 0 Left 0
WINDOW 39 0 0 Left 0
SYMATTR InstName V9
SYMATTR Value SINE(2.5 2.5 10k)
SYMBOL voltage -528 560 R90
WINDOW 0 -32 56 VBottom 2
WINDOW 3 32 56 VTop 2
WINDOW 123 0 0 Left 0
WINDOW 39 0 0 Left 0
SYMATTR InstName V10
SYMATTR Value SINE(2.5 2.5 3k)
SYMBOL Digital\\buf -592 -384 R0
WINDOW 39 1 -8 Left 2
SYMATTR SpiceLine Vhigh=10, Vlow=-5, Ref=1
SYMATTR InstName A1
SYMBOL voltage 192 -144 R0
WINDOW 123 0 0 Left 0
WINDOW 39 0 0 Left 0
SYMATTR InstName V11
SYMATTR Value 10
SYMBOL voltage 192 416 R0
WINDOW 123 0 0 Left 0
WINDOW 39 0 0 Left 0
SYMATTR InstName V12
SYMATTR Value -5
TEXT -704 632 Left 2 !.tran 500u
