Version 4
SHEET 1 880 1104
WIRE 400 -256 336 -256
WIRE 336 -240 336 -256
WIRE 400 -128 400 -256
WIRE -384 -80 -656 -80
WIRE 96 -32 64 -32
WIRE -384 0 -592 0
WIRE 96 0 64 0
WIRE 96 32 64 32
WIRE 448 48 416 48
WIRE 96 64 64 64
WIRE -384 80 -656 80
WIRE 96 96 64 96
WIRE 96 128 64 128
WIRE -384 160 -592 160
WIRE 96 192 64 192
WIRE 448 208 416 208
WIRE 96 224 64 224
WIRE -384 240 -656 240
WIRE -384 320 -592 320
WIRE -384 400 -656 400
WIRE 400 416 400 384
WIRE -384 480 -592 480
FLAG 400 496 0
FLAG 336 -160 0
FLAG -736 -80 0
FLAG -672 0 0
FLAG -736 80 0
FLAG -672 160 0
FLAG -736 240 0
FLAG -672 320 0
FLAG -736 400 0
FLAG -672 480 0
FLAG -384 -80 conf_vref
FLAG -384 0 conf_iref
FLAG -384 80 conf_lcl
FLAG -384 160 conf_ucl
FLAG -384 240 conf_lvl
FLAG -384 320 conf_uvl
FLAG -384 400 meas_out_v
FLAG -384 480 meas_out_i
FLAG 64 -32 conf_vref
FLAG 64 64 conf_iref
FLAG 64 32 conf_lcl
FLAG 64 0 conf_ucl
FLAG 64 128 conf_lvl
FLAG 64 96 conf_uvl
FLAG 64 224 meas_out_v
FLAG 64 192 meas_out_i
FLAG -608 -176 0
FLAG -608 -208 0
FLAG -544 -192 high
FLAG -544 -224 low
FLAG 176 384 high
FLAG 208 384 low
FLAG 240 384 low
FLAG 272 384 low
FLAG 304 384 low
FLAG 336 384 low
FLAG 448 48 mux_ref
FLAG 448 208 mux_meas
SYMBOL mux 256 128 R0
SYMATTR InstName X1
SYMBOL voltage 336 -256 R0
WINDOW 123 0 0 Left 0
WINDOW 39 0 0 Left 0
SYMATTR InstName V1
SYMATTR Value 10
SYMBOL voltage 400 400 R0
WINDOW 123 0 0 Left 0
WINDOW 39 0 0 Left 0
SYMATTR InstName V2
SYMATTR Value -5
SYMBOL voltage -640 -80 R90
WINDOW 0 -32 56 VBottom 2
WINDOW 3 32 56 VTop 2
WINDOW 123 0 0 Left 0
WINDOW 39 0 0 Left 0
SYMATTR InstName V5
SYMATTR Value SINE(2.5 2.5 100)
SYMBOL voltage -576 0 R90
WINDOW 0 -32 56 VBottom 2
WINDOW 3 32 56 VTop 2
WINDOW 123 0 0 Left 0
WINDOW 39 0 0 Left 0
SYMATTR InstName V6
SYMATTR Value 4
SYMBOL voltage -640 80 R90
WINDOW 0 -32 56 VBottom 2
WINDOW 3 32 56 VTop 2
WINDOW 123 0 0 Left 0
WINDOW 39 0 0 Left 0
SYMATTR InstName V7
SYMATTR Value 2
SYMBOL voltage -576 160 R90
WINDOW 0 -32 56 VBottom 2
WINDOW 3 32 56 VTop 2
WINDOW 123 0 0 Left 0
WINDOW 39 0 0 Left 0
SYMATTR InstName V8
SYMATTR Value 3
SYMBOL voltage -640 240 R90
WINDOW 0 -32 56 VBottom 2
WINDOW 3 32 56 VTop 2
WINDOW 123 0 0 Left 0
WINDOW 39 0 0 Left 0
SYMATTR InstName V9
SYMATTR Value 1
SYMBOL voltage -576 320 R90
WINDOW 0 -32 56 VBottom 2
WINDOW 3 32 56 VTop 2
WINDOW 123 0 0 Left 0
WINDOW 39 0 0 Left 0
SYMATTR InstName V10
SYMATTR Value 2
SYMBOL voltage -640 400 R90
WINDOW 0 -32 56 VBottom 2
WINDOW 3 32 56 VTop 2
WINDOW 123 0 0 Left 0
WINDOW 39 0 0 Left 0
SYMATTR InstName V11
SYMATTR Value SINE(2.5 2.5 50)
SYMBOL voltage -576 480 R90
WINDOW 0 -32 56 VBottom 2
WINDOW 3 32 56 VTop 2
WINDOW 123 0 0 Left 0
WINDOW 39 0 0 Left 0
SYMATTR InstName V12
SYMATTR Value 3
SYMBOL Digital\\buf -608 -272 R0
WINDOW 39 1 -8 Left 2
SYMATTR SpiceLine Vhigh=10, Vlow=-5, Ref=1
SYMATTR InstName A1
TEXT -800 552 Left 2 !.tran 100m
