Version 4
SHEET 1 880 680
WIRE 80 0 -48 0
WIRE 144 16 144 0
WIRE -48 48 -48 0
WIRE 80 128 80 0
WIRE 144 128 144 96
WIRE -48 192 -48 128
WIRE -48 224 -48 192
WIRE -48 352 -48 304
WIRE 80 352 80 224
WIRE 80 352 -48 352
FLAG -48 192 0
FLAG 144 0 0
SYMBOL voltage -48 32 R0
WINDOW 123 0 0 Left 0
WINDOW 39 0 0 Left 0
SYMATTR InstName V1
SYMATTR Value 10
SYMBOL voltage -48 208 R0
WINDOW 123 0 0 Left 0
WINDOW 39 0 0 Left 0
SYMATTR InstName V2
SYMATTR Value 5
SYMBOL voltage 144 112 R180
WINDOW 0 24 96 Left 2
WINDOW 3 24 16 Left 2
WINDOW 123 0 0 Left 0
WINDOW 39 0 0 Left 0
SYMATTR InstName V3
SYMATTR Value 5
SYMBOL current_source_lowside 112 176 R0
SYMATTR InstName X2
TEXT -72 392 Left 2 !.dc V3 -5 10 0.1
