Version 4
SHEET 1 1328 680
WIRE 768 48 768 0
WIRE 672 96 624 96
WIRE 848 112 832 112
WIRE 896 112 848 112
WIRE 672 128 624 128
WIRE 768 208 768 176
FLAG 768 0 V_SUP+
IOPIN 768 0 In
FLAG 768 208 V_SUP-
IOPIN 768 208 In
FLAG 624 96 ref
IOPIN 624 96 In
FLAG 624 128 meas
IOPIN 624 128 In
FLAG 896 112 out
IOPIN 896 112 Out
SYMBOL control_var 752 112 R0
SYMATTR InstName X1
