Version 4
SHEET 1 880 680
WIRE 240 -32 192 -32
WIRE 240 96 240 -32
WIRE 160 128 80 128
WIRE 384 160 304 160
WIRE 160 192 48 192
WIRE 48 224 48 192
WIRE 240 256 240 224
FLAG 80 128 0
FLAG 48 304 0
FLAG 240 336 0
FLAG 192 48 0
FLAG 384 160 out
SYMBOL control 240 160 R0
SYMATTR InstName X1
SYMBOL voltage 192 -48 R0
WINDOW 123 0 0 Left 0
WINDOW 39 0 0 Left 0
SYMATTR InstName V1
SYMATTR Value 10
SYMBOL voltage 240 240 R0
WINDOW 123 0 0 Left 0
WINDOW 39 0 0 Left 0
SYMATTR InstName V2
SYMATTR Value -5
SYMBOL voltage 48 208 R0
WINDOW 3 24 152 Left 2
WINDOW 123 24 124 Left 2
WINDOW 39 0 0 Left 0
SYMATTR Value ""
SYMATTR Value2 AC 1 0
SYMATTR InstName V3
TEXT 16 416 Left 2 !.ac dec 100 1k 100Meg
