Version 4
SHEET 1 880 680
WIRE 368 48 368 16
WIRE 304 96 272 96
WIRE -32 112 -64 112
WIRE 272 128 272 96
WIRE 272 128 192 128
WIRE -32 144 -256 144
WIRE 512 144 400 144
WIRE 272 160 192 160
WIRE -32 176 -64 176
WIRE 272 192 272 160
WIRE 304 192 272 192
WIRE 368 272 368 240
FLAG -64 176 V_SUP-
IOPIN -64 176 In
FLAG -64 112 V_SUP+
IOPIN -64 112 In
FLAG -256 144 V_IN
IOPIN -256 144 In
FLAG 368 16 V_SUP+
IOPIN 368 16 In
FLAG 368 272 V_SUP-
IOPIN 368 272 In
FLAG 512 144 V_OUT
IOPIN 512 144 BiDir
SYMBOL bias 80 144 R0
SYMATTR InstName X1
SYMBOL outstage 336 144 R0
SYMATTR InstName X2
