Version 4
SHEET 1 892 1104
WIRE 96 -384 16 -384
WIRE 384 -384 96 -384
WIRE 656 -384 384 -384
WIRE 96 -288 96 -384
WIRE 384 -288 384 -384
WIRE 384 -176 384 -192
WIRE 384 -176 352 -176
WIRE 96 -160 96 -192
WIRE 96 -160 80 -160
WIRE 656 -144 656 -384
WIRE 448 -96 448 -192
WIRE 592 -96 448 -96
WIRE 160 -48 160 -192
WIRE 384 -48 160 -48
WIRE 736 -48 656 -48
WIRE 160 -32 160 -48
WIRE 448 16 448 0
WIRE 448 16 432 16
WIRE 160 96 160 64
WIRE 160 96 -48 96
WIRE 448 176 432 176
WIRE 448 192 448 176
WIRE 160 240 160 96
WIRE 384 240 160 240
WIRE 736 240 656 240
WIRE 592 288 448 288
WIRE 384 352 352 352
WIRE 384 368 384 352
WIRE 448 368 448 288
WIRE 160 384 160 240
WIRE 160 512 160 464
WIRE 160 512 16 512
WIRE 384 512 384 464
WIRE 384 512 160 512
WIRE 656 512 656 336
WIRE 656 512 384 512
FLAG 16 512 V_SUP-
IOPIN 16 512 In
FLAG 16 -384 V_SUP+
IOPIN 16 -384 In
FLAG 80 -160 V_SUP-
IOPIN 80 -160 In
FLAG 736 -48 V_OUT+
IOPIN 736 -48 Out
FLAG 736 240 V_OUT-
IOPIN 736 240 Out
FLAG -48 96 V_IN
IOPIN -48 96 In
FLAG 352 -176 V_SUP-
IOPIN 352 -176 In
FLAG 432 16 V_SUP-
IOPIN 432 16 In
FLAG 432 176 V_SUP+
IOPIN 432 176 In
FLAG 352 352 V_SUP+
IOPIN 352 352 In
SYMBOL rubber_diode 160 16 R0
SYMATTR InstName X1
SYMBOL current_source_highside 128 -240 R0
SYMATTR InstName X2
SYMBOL res 144 368 R0
SYMATTR InstName R1
SYMATTR Value 270
SYMBOL npn 592 -144 R0
SYMATTR InstName Q3
SYMATTR Value TIP41C
SYMBOL pnp 592 336 M180
SYMATTR InstName Q4
SYMATTR Value TIP42C
SYMBOL current_source_highside 416 -240 R0
SYMATTR InstName X3
SYMBOL current_source_lowside 416 416 R0
SYMATTR InstName X4
SYMBOL npn 384 192 R0
SYMATTR InstName Q2
SYMBOL pnp 384 0 M180
SYMATTR InstName Q1
TEXT -88 632 Left 2 !.MODEL DI_DNLS350E  NPN (IS=11.7f NF=1.00 BF=388 VAF=127\n+ IKF=2.97 ISE=8.95f NE=2.00 BR=4.00 NR=1.00\n+ VAR=20.0 IKR=4.50 RE=23.8m RB=95.3m RC=9.53m\n+ XTB=1.5 CJE=341p VJE=1.10 MJE=0.500 CJC=45.4p VJC=0.300\n+ MJC=0.300 TF=574p TR=111n EG=1.12 )\n.MODEL DI_DPLS350E  PNP (IS=9.40f NF=1.00 BF=382 VAF=127\n+ IKF=2.48 ISE=8.14f NE=2.00 BR=4.00 NR=1.00\n+ VAR=24.0 IKR=3.75 RE=25.8m RB=0.103 RC=10.3m\n+ XTB=1.5 CJE=337p VJE=1.10 MJE=0.500 CJC=76.7p VJC=0.300\n+ MJC=0.300 TF=645p TR=122n EG=1.12 )
TEXT -88 920 Left 2 !.inc ../std_bjt.lib
