Version 4
SHEET 1 880 1104
WIRE 96 -384 16 -384
WIRE 336 -384 96 -384
WIRE 576 -384 336 -384
WIRE 96 -288 96 -384
WIRE 336 -288 336 -384
WIRE 576 -192 576 -384
WIRE 96 -160 96 -192
WIRE 96 -160 80 -160
WIRE 336 -160 336 -192
WIRE 336 -160 320 -160
WIRE 400 -144 400 -192
WIRE 512 -144 400 -144
WIRE 400 -96 400 -144
WIRE 656 -96 576 -96
WIRE 160 -48 160 -192
WIRE 336 -48 160 -48
WIRE 400 16 400 0
WIRE 400 16 384 16
WIRE 160 48 160 -48
WIRE 400 176 384 176
WIRE 400 192 400 176
WIRE 160 240 160 144
WIRE 160 240 -128 240
WIRE 336 240 160 240
WIRE 656 288 576 288
WIRE 400 336 400 288
WIRE 512 336 400 336
WIRE 336 368 320 368
WIRE 160 384 160 240
WIRE 336 384 336 368
WIRE 400 384 400 336
WIRE 160 512 160 464
WIRE 160 512 16 512
WIRE 336 512 336 480
WIRE 336 512 160 512
WIRE 576 512 576 384
WIRE 576 512 336 512
FLAG 16 512 V_SUP-
IOPIN 16 512 In
FLAG 16 -384 V_SUP+
IOPIN 16 -384 In
FLAG 80 -160 V_SUP-
IOPIN 80 -160 In
FLAG 320 -160 V_SUP-
IOPIN 320 -160 In
FLAG 320 368 V_SUP+
IOPIN 320 368 In
FLAG 384 176 V_SUP+
IOPIN 384 176 In
FLAG 384 16 V_SUP-
IOPIN 384 16 In
FLAG 656 -96 V_OUT+
IOPIN 656 -96 Out
FLAG 656 288 V_OUT-
IOPIN 656 288 Out
FLAG -128 240 V_IN
IOPIN -128 240 In
SYMBOL rubber_diode 160 96 R0
SYMATTR InstName X1
SYMBOL current_source_highside 128 -240 R0
SYMATTR InstName X2
SYMBOL res 144 368 R0
SYMATTR InstName R1
SYMATTR Value 270
SYMBOL current_source_highside 368 -240 R0
SYMATTR InstName X3
SYMBOL current_source_lowside 368 432 R0
SYMATTR InstName X4
SYMBOL pnp 336 0 M180
SYMATTR InstName Q1
SYMBOL npn 336 192 R0
SYMATTR InstName Q2
SYMBOL npn 512 -192 R0
SYMATTR InstName Q3
SYMATTR Value TIP41C
SYMBOL pnp 512 384 M180
SYMATTR InstName Q4
SYMATTR Value TIP42C
TEXT -88 632 Left 2 !.MODEL DI_DNLS350E  NPN (IS=11.7f NF=1.00 BF=388 VAF=127\n+ IKF=2.97 ISE=8.95f NE=2.00 BR=4.00 NR=1.00\n+ VAR=20.0 IKR=4.50 RE=23.8m RB=95.3m RC=9.53m\n+ XTB=1.5 CJE=341p VJE=1.10 MJE=0.500 CJC=45.4p VJC=0.300\n+ MJC=0.300 TF=574p TR=111n EG=1.12 )\n.MODEL DI_DPLS350E  PNP (IS=9.40f NF=1.00 BF=382 VAF=127\n+ IKF=2.48 ISE=8.14f NE=2.00 BR=4.00 NR=1.00\n+ VAR=24.0 IKR=3.75 RE=25.8m RB=0.103 RC=10.3m\n+ XTB=1.5 CJE=337p VJE=1.10 MJE=0.500 CJC=76.7p VJC=0.300\n+ MJC=0.300 TF=645p TR=122n EG=1.12 )
TEXT -88 920 Left 2 !.inc ../std_bjt.lib
