Version 4
SHEET 1 880 800
WIRE -176 -192 -480 -192
WIRE 16 -192 -176 -192
WIRE 256 -160 176 -160
WIRE 176 -144 176 -160
WIRE -176 -112 -416 -112
WIRE -16 -112 -176 -112
WIRE -208 -32 -480 -32
WIRE -48 -32 -208 -32
WIRE 256 -32 256 -160
WIRE 16 16 16 -192
WIRE 48 16 16 16
WIRE -208 48 -416 48
WIRE -80 48 -208 48
WIRE -16 48 -16 -112
WIRE 48 48 -16 48
WIRE -48 96 -48 -32
WIRE 48 96 -48 96
WIRE -208 128 -480 128
WIRE -112 128 -208 128
WIRE -80 128 -80 48
WIRE 48 128 -80 128
WIRE 560 144 480 144
WIRE -112 176 -112 128
WIRE 48 176 -112 176
WIRE 560 176 480 176
WIRE -208 208 -416 208
WIRE 48 208 -208 208
WIRE 560 208 480 208
WIRE 48 240 -80 240
WIRE 560 240 480 240
WIRE 48 272 -48 272
WIRE 560 272 480 272
WIRE -208 288 -480 288
WIRE -80 288 -80 240
WIRE -80 288 -208 288
WIRE 560 304 480 304
WIRE 48 320 -16 320
WIRE 48 352 16 352
WIRE -208 368 -416 368
WIRE -48 368 -48 272
WIRE -48 368 -208 368
WIRE 256 384 256 368
WIRE 256 384 192 384
WIRE 192 400 192 384
WIRE -208 448 -480 448
WIRE -16 448 -16 320
WIRE -16 448 -208 448
WIRE -208 528 -416 528
WIRE 16 528 16 352
WIRE 16 528 -208 528
FLAG 176 -64 0
FLAG 192 480 0
FLAG -560 -192 0
FLAG -496 -112 0
FLAG -560 -32 0
FLAG -496 48 0
FLAG -560 128 0
FLAG -496 208 0
FLAG -560 288 0
FLAG -496 368 0
FLAG -560 448 0
FLAG -496 528 0
FLAG -176 -192 conf_refselect_v
FLAG -176 -112 conf_refselect_i
FLAG -208 -32 conf_vref
FLAG -208 48 conf_iref
FLAG -208 128 conf_lcl
FLAG -208 208 conf_ucl
FLAG -208 288 conf_lvl
FLAG -208 368 conf_uvl
FLAG -208 448 meas_out_v
FLAG -208 528 meas_out_i
FLAG 560 144 comp_lcle
FLAG 560 176 comp_ucle
FLAG 560 208 comp_lvle
FLAG 560 240 comp_uvle
FLAG 560 272 comp_mgtt
FLAG 560 304 comp_mstt
SYMBOL compare-logic 256 160 R0
WINDOW 0 8 -200 Invisible 2
SYMATTR InstName X1
SYMBOL voltage 176 -160 R0
WINDOW 123 0 0 Left 0
WINDOW 39 0 0 Left 0
SYMATTR InstName V1
SYMATTR Value 10
SYMBOL voltage 192 384 R0
WINDOW 123 0 0 Left 0
WINDOW 39 0 0 Left 0
SYMATTR InstName V2
SYMATTR Value -5
SYMBOL voltage -464 -192 R90
WINDOW 0 -32 56 VBottom 2
WINDOW 3 32 56 VTop 2
WINDOW 123 0 0 Left 0
WINDOW 39 0 0 Left 0
SYMATTR InstName V3
SYMATTR Value 10
SYMBOL voltage -400 -112 R90
WINDOW 0 -32 56 VBottom 2
WINDOW 3 32 56 VTop 2
WINDOW 123 0 0 Left 0
WINDOW 39 0 0 Left 0
SYMATTR InstName V4
SYMATTR Value -5
SYMBOL voltage -464 -32 R90
WINDOW 0 -32 56 VBottom 2
WINDOW 3 32 56 VTop 2
WINDOW 123 0 0 Left 0
WINDOW 39 0 0 Left 0
SYMATTR InstName V5
SYMATTR Value 3
SYMBOL voltage -400 48 R90
WINDOW 0 -32 56 VBottom 2
WINDOW 3 32 56 VTop 2
WINDOW 123 0 0 Left 0
WINDOW 39 0 0 Left 0
SYMATTR InstName V6
SYMATTR Value 4
SYMBOL voltage -464 128 R90
WINDOW 0 -32 56 VBottom 2
WINDOW 3 32 56 VTop 2
WINDOW 123 0 0 Left 0
WINDOW 39 0 0 Left 0
SYMATTR InstName V7
SYMATTR Value 2
SYMBOL voltage -400 208 R90
WINDOW 0 -32 56 VBottom 2
WINDOW 3 32 56 VTop 2
WINDOW 123 0 0 Left 0
WINDOW 39 0 0 Left 0
SYMATTR InstName V8
SYMATTR Value 3
SYMBOL voltage -464 288 R90
WINDOW 0 -32 56 VBottom 2
WINDOW 3 32 56 VTop 2
WINDOW 123 0 0 Left 0
WINDOW 39 0 0 Left 0
SYMATTR InstName V9
SYMATTR Value 1
SYMBOL voltage -400 368 R90
WINDOW 0 -32 56 VBottom 2
WINDOW 3 32 56 VTop 2
WINDOW 123 0 0 Left 0
WINDOW 39 0 0 Left 0
SYMATTR InstName V10
SYMATTR Value 2
SYMBOL voltage -464 448 R90
WINDOW 0 -32 56 VBottom 2
WINDOW 3 32 56 VTop 2
WINDOW 123 0 0 Left 0
WINDOW 39 0 0 Left 0
SYMATTR InstName V11
SYMATTR Value SINE(2.5 2.5 10k)
SYMBOL voltage -400 528 R90
WINDOW 0 -32 56 VBottom 2
WINDOW 3 32 56 VTop 2
WINDOW 123 0 0 Left 0
WINDOW 39 0 0 Left 0
SYMATTR InstName V12
SYMATTR Value SINE(2.5 2.5 3k)
TEXT -576 600 Left 2 !.tran 500u
