Version 4
SHEET 1 2188 924
WIRE -176 -208 -240 -208
WIRE 352 -208 -176 -208
WIRE -208 -176 -240 -176
WIRE 320 -176 -208 -176
WIRE 64 -128 48 -128
WIRE 64 -112 64 -128
WIRE 544 -96 512 -96
WIRE 1040 -96 1008 -96
WIRE -176 -64 -176 -208
WIRE -144 -64 -176 -64
WIRE 544 -64 512 -64
WIRE 1040 -64 1008 -64
WIRE -208 -32 -208 -176
WIRE -144 -32 -208 -32
WIRE 1040 -32 1008 -32
WIRE 352 -16 352 -208
WIRE 544 -16 352 -16
WIRE 1040 0 1008 0
WIRE -144 16 -240 16
WIRE 320 16 320 -176
WIRE 544 16 320 16
WIRE 1040 32 1008 32
WIRE -144 48 -240 48
WIRE 544 64 288 64
WIRE 1040 64 1008 64
WIRE -144 96 -240 96
WIRE 544 96 288 96
WIRE 1040 112 1008 112
WIRE -144 128 -240 128
WIRE 544 128 288 128
WIRE 1040 144 1008 144
WIRE -144 160 -240 160
WIRE 544 160 288 160
WIRE 1040 176 1008 176
WIRE -144 192 -240 192
WIRE 544 192 288 192
WIRE 1040 208 1008 208
WIRE 544 224 288 224
WIRE -144 240 -240 240
WIRE 1040 240 1008 240
WIRE -144 272 -240 272
WIRE 544 272 496 272
WIRE 1040 272 1008 272
WIRE 64 304 64 288
WIRE 64 304 48 304
WIRE 1040 320 1008 320
WIRE -320 448 -352 448
WIRE -48 448 -224 448
WIRE 416 448 384 448
WIRE 688 448 512 448
WIRE -48 464 -64 464
WIRE 64 464 16 464
WIRE 688 464 672 464
WIRE 800 464 752 464
WIRE -48 480 -64 480
WIRE 688 480 672 480
WIRE 1216 480 1136 480
WIRE -320 496 -352 496
WIRE -48 496 -64 496
WIRE 416 496 384 496
WIRE 688 496 672 496
WIRE 1360 496 1280 496
WIRE -48 512 -64 512
WIRE 688 512 672 512
WIRE 1216 512 1136 512
WIRE 1360 528 1360 496
WIRE 1392 528 1360 528
WIRE 1216 544 1136 544
WIRE 1216 576 1136 576
WIRE 1488 576 1456 576
WIRE 1392 592 1280 592
WIRE -320 608 -352 608
WIRE -48 608 -224 608
WIRE 416 608 384 608
WIRE 688 608 512 608
WIRE 1216 608 1136 608
WIRE -48 624 -64 624
WIRE 64 624 16 624
WIRE 688 624 672 624
WIRE 800 624 752 624
WIRE -48 640 -64 640
WIRE 688 640 672 640
WIRE 1216 640 1136 640
WIRE -320 656 -352 656
WIRE -48 656 -64 656
WIRE 416 656 384 656
WIRE 688 656 672 656
WIRE -48 672 -64 672
WIRE 688 672 672 672
WIRE -320 768 -352 768
WIRE -48 768 -224 768
WIRE 416 768 384 768
WIRE 688 768 512 768
WIRE -48 784 -64 784
WIRE 64 784 16 784
WIRE 688 784 672 784
WIRE 800 784 752 784
WIRE -48 800 -64 800
WIRE 688 800 672 800
WIRE -320 816 -352 816
WIRE -48 816 -64 816
WIRE 416 816 384 816
WIRE 688 816 672 816
WIRE -48 832 -64 832
WIRE 688 832 672 832
FLAG -240 240 meas_out_v
IOPIN -240 240 In
FLAG -240 272 meas_out_i
IOPIN -240 272 In
FLAG -240 16 conf_vref
IOPIN -240 16 In
FLAG -240 48 conf_iref
IOPIN -240 48 In
FLAG -240 192 conf_uvl
IOPIN -240 192 In
FLAG -240 160 conf_lvl
IOPIN -240 160 In
FLAG -240 128 conf_ucl
IOPIN -240 128 In
FLAG -240 96 conf_lcl
IOPIN -240 96 In
FLAG -240 -208 conf_refselect_v
IOPIN -240 -208 In
FLAG -240 -176 conf_refselect_i
IOPIN -240 -176 In
FLAG 512 -64 conf_ok
IOPIN 512 -64 In
FLAG 512 -96 power_ok
IOPIN 512 -96 In
FLAG 1040 -96 r_mode_vc
FLAG 1040 -32 r_mode_lclc
FLAG 1040 32 r_mode_uclc
FLAG 1040 112 r_mode_cc
FLAG 1040 176 r_mode_lvlc
FLAG 1040 240 r_mode_uvlc
FLAG 1040 -64 s_mode_vc
FLAG 1040 0 s_mode_lclc
FLAG 1040 64 s_mode_uclc
FLAG 1040 144 s_mode_cc
FLAG 1040 208 s_mode_lvlc
FLAG 1040 272 s_mode_uvlc
FLAG -352 496 r_mode_vc
FLAG -352 656 r_mode_lclc
FLAG -352 816 r_mode_uclc
FLAG 384 496 r_mode_cc
FLAG 384 656 r_mode_lvlc
FLAG 384 816 r_mode_uvlc
FLAG -352 448 s_mode_vc
FLAG -352 608 s_mode_lclc
FLAG -352 768 s_mode_uclc
FLAG 384 448 s_mode_cc
FLAG 384 608 s_mode_lvlc
FLAG 384 768 s_mode_uvlc
FLAG 1040 320 enable_ok
FLAG 560 -224 0
FLAG 560 -256 0
FLAG 624 -240 high
FLAG 624 -272 low
FLAG -64 464 high
FLAG -64 480 high
FLAG -64 496 high
FLAG -64 512 enable_ok
FLAG 64 464 mode_vc
IOPIN 64 464 Out
FLAG -64 624 high
FLAG -64 640 high
FLAG -64 656 high
FLAG -64 672 enable_ok
FLAG 64 624 mode_lclc
IOPIN 64 624 Out
FLAG -64 784 high
FLAG -64 800 high
FLAG -64 816 high
FLAG -64 832 enable_ok
FLAG 64 784 mode_uclc
IOPIN 64 784 Out
FLAG 672 464 high
FLAG 672 480 high
FLAG 672 496 high
FLAG 672 512 enable_ok
FLAG 800 464 mode_cc
IOPIN 800 464 Out
FLAG 672 624 high
FLAG 672 640 high
FLAG 672 656 high
FLAG 672 672 enable_ok
FLAG 800 624 mode_lvlc
IOPIN 800 624 Out
FLAG 672 784 high
FLAG 672 800 high
FLAG 672 816 high
FLAG 672 832 enable_ok
FLAG 800 784 mode_uvlc
IOPIN 800 784 Out
FLAG 1136 480 mode_vc
FLAG 1136 512 mode_lclc
FLAG 1136 544 mode_uclc
FLAG 1136 576 mode_cc
FLAG 1136 608 mode_lvlc
FLAG 1136 640 mode_uvlc
FLAG 1216 496 low
FLAG 1216 528 low
FLAG 1216 592 low
FLAG 1216 624 low
FLAG 1392 544 low
FLAG 1392 560 low
FLAG 1392 576 low
FLAG 1488 576 ~mode
FLAG 496 272 ~mode
FLAG 48 -128 V_SUP+
IOPIN 48 -128 In
FLAG 48 304 V_SUP-
IOPIN 48 304 In
SYMBOL compare-logic 64 80 R0
SYMATTR InstName X1
SYMBOL mode-transition 768 80 R0
SYMATTR InstName X2
SYMBOL Digital\\or 1248 448 R0
SYMATTR SpiceLine Vhigh=10, Vlow=-5, Trise=60n, Tfall=60n, Td=30n
SYMATTR InstName A1
SYMBOL Digital\\srflop -272 400 R0
SYMATTR InstName A2
SYMATTR SpiceLine Vhigh=10, Vlow=-5, Trise=60n, Tfall=60n, Td=30n
SYMBOL Digital\\and -16 416 R0
SYMATTR SpiceLine Vhigh=10, Vlow=-5, Trise=60n, Tfall=60n, Td=30n
SYMATTR InstName A3
SYMBOL Digital\\buf 560 -320 R0
WINDOW 39 1 -8 Left 2
SYMATTR SpiceLine Vhigh=10, Vlow=-5, Ref=1
SYMATTR InstName A4
SYMBOL Digital\\srflop -272 560 R0
SYMATTR InstName A5
SYMATTR SpiceLine Vhigh=10, Vlow=-5, Trise=60n, Tfall=60n, Td=30n
SYMBOL Digital\\and -16 576 R0
SYMATTR SpiceLine Vhigh=10, Vlow=-5, Trise=60n, Tfall=60n, Td=30n
SYMATTR InstName A6
SYMBOL Digital\\srflop -272 720 R0
SYMATTR InstName A7
SYMATTR SpiceLine Vhigh=10, Vlow=-5, Trise=60n, Tfall=60n, Td=30n
SYMBOL Digital\\and -16 736 R0
SYMATTR SpiceLine Vhigh=10, Vlow=-5, Trise=60n, Tfall=60n, Td=30n
SYMATTR InstName A8
SYMBOL Digital\\srflop 464 400 R0
SYMATTR InstName A9
SYMATTR SpiceLine Vhigh=10, Vlow=-5, Trise=60n, Tfall=60n, Td=30n
SYMBOL Digital\\and 720 416 R0
SYMATTR SpiceLine Vhigh=10, Vlow=-5, Trise=60n, Tfall=60n, Td=30n
SYMATTR InstName A10
SYMBOL Digital\\srflop 464 560 R0
SYMATTR InstName A11
SYMATTR SpiceLine Vhigh=10, Vlow=-5, Trise=60n, Tfall=60n, Td=30n
SYMBOL Digital\\and 720 576 R0
SYMATTR SpiceLine Vhigh=10, Vlow=-5, Trise=60n, Tfall=60n, Td=30n
SYMATTR InstName A12
SYMBOL Digital\\srflop 464 720 R0
SYMATTR InstName A13
SYMATTR SpiceLine Vhigh=10, Vlow=-5, Trise=60n, Tfall=60n, Td=30n
SYMBOL Digital\\and 720 736 R0
SYMATTR SpiceLine Vhigh=10, Vlow=-5, Trise=60n, Tfall=60n, Td=30n
SYMATTR InstName A14
SYMBOL Digital\\or 1248 544 R0
SYMATTR SpiceLine Vhigh=10, Vlow=-5, Trise=60n, Tfall=60n, Td=30n
SYMATTR InstName A15
SYMBOL Digital\\or 1424 496 R0
SYMATTR SpiceLine Vhigh=10, Vlow=-5, Trise=60n, Tfall=60n, Td=30n
SYMATTR InstName A16
