Version 4
SHEET 1 5688 680
WIRE 160 -128 160 -144
WIRE 336 -128 160 -128
WIRE 160 -112 160 -128
WIRE 336 -112 336 -128
WIRE 96 -64 48 -64
WIRE 272 -64 96 -64
WIRE 160 0 160 -16
WIRE 336 0 336 -16
WIRE 160 96 160 80
WIRE 160 96 112 96
WIRE 336 96 336 80
WIRE 336 96 160 96
WIRE 160 112 160 96
WIRE 336 112 336 96
WIRE 160 208 160 192
WIRE 336 208 336 192
WIRE 96 256 48 256
WIRE 272 256 96 256
WIRE 160 320 160 304
WIRE 336 320 336 304
WIRE 336 320 160 320
WIRE 160 336 160 320
FLAG 160 -144 V_SUP+
IOPIN 160 -144 In
FLAG 160 336 V_SUP-
IOPIN 160 336 In
FLAG 48 -64 V_IN+
IOPIN 48 -64 In
FLAG 48 256 V_IN-
IOPIN 48 256 In
FLAG 112 96 V_OUT
IOPIN 112 96 BiDir
SYMBOL npn 96 -112 R0
SYMATTR InstName Q1
SYMATTR Value TIP41C
SYMBOL pnp 96 304 M180
SYMATTR InstName Q2
SYMATTR Value TIP42C
SYMBOL res 144 -16 R0
SYMATTR InstName R1
SYMATTR Value {R_E}
SYMBOL res 144 96 R0
SYMATTR InstName R2
SYMATTR Value {R_E}
SYMBOL npn 272 -112 R0
SYMATTR InstName Q3
SYMATTR Value TIP41C
SYMBOL pnp 272 304 M180
SYMATTR InstName Q4
SYMATTR Value TIP42C
SYMBOL res 320 -16 R0
SYMATTR InstName R3
SYMATTR Value {R_E}
SYMBOL res 320 96 R0
SYMATTR InstName R4
SYMATTR Value {R_E}
TEXT -16 560 Left 2 !.inc ./std_bjt.lib
TEXT -16 528 Left 2 !.tran 100n
TEXT -16 496 Left 2 !.param R_E=350m
TEXT 256 368 Left 2 !.save
