Version 4
SHEET 1 880 680
WIRE 176 -96 64 -96
WIRE 352 -96 256 -96
WIRE 208 -16 144 -16
WIRE 208 96 208 -16
WIRE 64 128 64 -96
WIRE 128 128 64 128
WIRE 352 160 352 -96
WIRE 352 160 272 160
WIRE -48 192 -80 192
WIRE 64 192 32 192
WIRE 128 192 64 192
WIRE 208 240 208 224
WIRE -80 288 -80 192
WIRE -80 384 -80 368
FLAG 208 320 0
FLAG 144 64 0
FLAG 352 -96 out
FLAG 64 -96 meas
FLAG 64 192 ref
FLAG -80 384 0
SYMBOL control 208 160 R0
SYMATTR InstName X1
SYMBOL voltage 144 -32 R0
WINDOW 123 0 0 Left 0
WINDOW 39 0 0 Left 0
SYMATTR InstName V1
SYMATTR Value 10
SYMBOL voltage 208 224 R0
WINDOW 123 0 0 Left 0
WINDOW 39 0 0 Left 0
SYMATTR InstName V2
SYMATTR Value -5
SYMBOL res 272 -112 R90
WINDOW 0 0 56 VBottom 2
WINDOW 3 32 56 VTop 2
SYMATTR InstName R1
SYMATTR Value R=if(time>1,if(time>1.1,1m,1G),1m)
SYMBOL voltage -80 272 R0
WINDOW 123 0 0 Left 0
WINDOW 39 0 0 Left 0
SYMATTR InstName V3
SYMATTR Value 2.5
SYMBOL res 48 176 R90
WINDOW 0 0 56 VBottom 2
WINDOW 3 32 56 VTop 2
SYMATTR InstName R3
SYMATTR Value R=if(time>1,if(time>1.1,1m,1G),1m)
TEXT -112 416 Left 2 !.tran 0 {1.2} {0.9}
TEXT -184 504 Left 2 ;Gapping inputs from time = 1 until 1.1,\notherwise feedback with R=1m, and input V(ref) = 2.5
