Version 4
SHEET 1 880 680
WIRE -64 112 -128 112
WIRE 128 112 16 112
WIRE -128 160 -128 112
WIRE 352 160 224 160
WIRE -128 208 -128 160
WIRE -64 208 -128 208
WIRE 128 208 16 208
FLAG 320 416 0
FLAG 416 416 0
FLAG 320 336 V_SUP+
FLAG 416 336 V_SUP-
FLAG 192 64 V_SUP+
FLAG 192 256 V_SUP-
FLAG -208 160 0
FLAG 432 160 0
SYMBOL outstage 160 160 R0
WINDOW 0 0 0 Left 0
SYMATTR InstName X1
SYMBOL voltage 320 320 R0
WINDOW 123 0 0 Left 0
WINDOW 39 0 0 Left 0
SYMATTR InstName V1
SYMATTR Value 10
SYMBOL voltage 416 320 R0
WINDOW 123 0 0 Left 0
WINDOW 39 0 0 Left 0
SYMATTR InstName V2
SYMATTR Value -5
SYMBOL voltage 32 112 R90
WINDOW 0 -32 56 VBottom 2
WINDOW 3 5 54 VTop 2
WINDOW 123 0 0 Left 0
WINDOW 39 0 0 Left 0
SYMATTR InstName V3
SYMATTR Value {V_diff/2}
SYMBOL voltage -80 208 R270
WINDOW 0 32 56 VTop 2
WINDOW 3 -3 58 VBottom 2
WINDOW 123 0 0 Left 0
WINDOW 39 0 0 Left 0
SYMATTR InstName V4
SYMATTR Value {V_diff/2}
SYMBOL voltage -112 160 R90
WINDOW 0 -32 56 VBottom 2
WINDOW 3 32 56 VTop 2
WINDOW 123 0 0 Left 0
WINDOW 39 0 0 Left 0
SYMATTR InstName V5
SYMATTR Value 0
SYMBOL current 352 160 R270
WINDOW 0 32 40 VTop 2
WINDOW 3 -32 40 VBottom 2
WINDOW 123 0 0 Left 0
WINDOW 39 0 0 Left 0
SYMATTR InstName I1
SYMATTR Value 0
TEXT -136 384 Left 2 !.step param V_diff 0 2 0.01
TEXT -224 440 Left 2 ;.tran 1
TEXT -224 472 Left 2 !.op
