Version 4
SHEET 1 2940 1288
WIRE -32 -16 -288 -16
WIRE 512 -16 -32 -16
WIRE -160 16 -288 16
WIRE 480 16 -160 16
WIRE 512 32 512 -16
WIRE 544 32 512 32
WIRE -96 48 -288 48
WIRE 352 48 -96 48
WIRE 1152 48 976 48
WIRE 2480 48 2224 48
WIRE 544 64 416 64
WIRE -64 80 -288 80
WIRE 384 80 -64 80
WIRE 1504 80 1296 80
WIRE 1936 80 1712 80
WIRE 2304 80 2224 80
WIRE 544 96 448 96
WIRE -224 112 -288 112
WIRE 448 112 448 96
WIRE 448 112 -224 112
WIRE 1152 112 864 112
WIRE 2272 112 2224 112
WIRE 480 128 480 16
WIRE 544 128 480 128
WIRE -192 144 -288 144
WIRE 416 144 416 64
WIRE 416 144 -192 144
WIRE 384 160 384 80
WIRE 544 160 384 160
WIRE 0 176 -288 176
WIRE 352 192 352 48
WIRE 544 192 352 192
WIRE -128 208 -288 208
WIRE 2480 224 2480 48
WIRE 544 256 480 256
WIRE 32 272 -288 272
WIRE 976 272 976 48
WIRE 976 272 864 272
WIRE 544 288 512 288
WIRE 2480 336 2480 304
WIRE 512 480 512 288
WIRE 960 480 512 480
WIRE 2304 480 2304 80
WIRE 2304 480 960 480
WIRE 2480 480 2480 416
WIRE 2496 480 2480 480
WIRE 480 512 480 256
WIRE 928 512 480 512
WIRE 2272 512 2272 112
WIRE 2272 512 928 512
WIRE 32 752 32 272
WIRE 96 752 32 752
WIRE 0 800 0 176
WIRE 96 800 0 800
WIRE 624 816 624 448
WIRE 624 816 512 816
WIRE -32 832 -32 -16
WIRE 96 832 -32 832
WIRE 656 848 656 448
WIRE 656 848 512 848
WIRE -64 864 -64 80
WIRE 96 864 -64 864
WIRE 688 880 688 448
WIRE 688 880 512 880
WIRE -96 896 -96 48
WIRE 96 896 -96 896
WIRE 720 912 720 448
WIRE 720 912 512 912
WIRE -128 944 -128 208
WIRE 96 944 -128 944
WIRE 752 944 752 448
WIRE 752 944 512 944
WIRE -160 976 -160 16
WIRE 96 976 -160 976
WIRE 784 976 784 448
WIRE 784 976 512 976
WIRE -192 1008 -192 144
WIRE 96 1008 -192 1008
WIRE -224 1040 -224 112
WIRE 96 1040 -224 1040
WIRE 96 1088 32 1088
WIRE 96 1120 64 1120
WIRE 64 1168 64 1120
WIRE 928 1168 928 512
WIRE 928 1168 64 1168
WIRE 32 1200 32 1088
WIRE 960 1200 960 480
WIRE 960 1200 32 1200
FLAG 96 -224 0
FLAG 96 -256 0
FLAG 160 -240 high
FLAG 160 -272 low
FLAG 96 720 high
FLAG -672 112 V_SUP+
FLAG 848 -64 V_SUP+
FLAG 1232 16 V_SUP+
FLAG 304 704 V_SUP+
FLAG 1984 32 V_SUP+
FLAG 1504 48 V_SUP+
FLAG 1984 128 V_SUP-
FLAG 1504 112 V_SUP-
FLAG 1232 144 V_SUP-
FLAG 848 448 V_SUP-
FLAG 304 1136 V_SUP-
FLAG -672 144 V_SUP-
FLAG -464 -304 V_SUP+
FLAG -336 -304 V_SUP-
FLAG -464 -224 0
FLAG -336 -224 0
FLAG 2480 480 0
FLAG 2480 48 out
SYMBOL conf -480 128 R0
SYMATTR InstName X1
SYMBOL mux 704 192 R0
SYMATTR InstName X2
SYMBOL limit-logic 304 912 R0
SYMATTR InstName X3
SYMBOL control 1232 80 R0
SYMATTR InstName X4
SYMBOL power-electronics 1600 80 R0
SYMATTR InstName X5
SYMBOL meas 2080 80 R0
SYMATTR InstName X6
SYMBOL Digital\\buf 96 -320 R0
WINDOW 39 1 -8 Left 2
SYMATTR SpiceLine Vhigh=10, Vlow=-5, Ref=1
SYMATTR InstName A1
SYMBOL voltage -464 -320 R0
WINDOW 123 0 0 Left 0
WINDOW 39 0 0 Left 0
SYMATTR InstName V1
SYMATTR Value 10
SYMBOL voltage -336 -320 R0
WINDOW 123 0 0 Left 0
WINDOW 39 0 0 Left 0
SYMATTR InstName V2
SYMATTR Value -5
SYMBOL res 2464 208 R0
SYMATTR InstName R1
SYMATTR Value {R}
SYMBOL voltage 2480 320 R0
WINDOW 123 0 0 Left 0
WINDOW 39 0 0 Left 0
SYMATTR InstName V3
SYMATTR Value 2.5
TEXT 2408 536 Left 2 !.tran 10m startup
TEXT 2592 128 VRight 2 !.param R 250m
