Version 4
SHEET 1 880 680
WIRE 16 16 0 16
WIRE 496 16 480 16
WIRE 16 48 0 48
WIRE 496 48 480 48
WIRE 496 80 480 80
WIRE 16 96 0 96
WIRE 496 112 480 112
WIRE 16 128 0 128
WIRE 496 144 480 144
WIRE 16 176 0 176
WIRE 496 176 480 176
WIRE 16 208 0 208
WIRE 496 224 480 224
WIRE 16 240 0 240
WIRE 496 256 480 256
WIRE 16 272 0 272
WIRE 496 288 480 288
WIRE 16 304 0 304
WIRE 496 320 480 320
WIRE 16 336 0 336
WIRE 496 352 480 352
WIRE -48 384 -112 384
WIRE 16 384 -48 384
WIRE 496 384 480 384
WIRE -112 400 -112 384
WIRE 496 432 480 432
FLAG -32 -128 0
FLAG -32 -160 0
FLAG 32 -144 high
FLAG 32 -176 low
FLAG 0 16 high
FLAG 0 48 high
FLAG 0 96 high
FLAG 0 128 low
FLAG 0 176 low
FLAG 0 208 high
FLAG 0 240 low
FLAG 0 272 low
FLAG 0 304 high
FLAG 0 336 low
FLAG -112 480 0
FLAG 496 16 r_mode_vc
FLAG 496 48 s_mode_vc
FLAG 496 80 r_mode_lclc
FLAG 496 112 s_mode_lclc
FLAG 496 144 r_mode_uclc
FLAG 496 176 s_mode_uclc
FLAG 496 224 r_mode_cc
FLAG 496 256 s_mode_cc
FLAG 496 288 r_mode_lvlc
FLAG 496 320 s_mode_lvlc
FLAG 496 352 r_mode_uvlc
FLAG 496 384 s_mode_uvlc
FLAG -48 384 ~mode
FLAG 496 432 enable_ok
SYMBOL mode-transition 240 192 R0
SYMATTR InstName X1
SYMBOL Digital\\buf -32 -224 R0
WINDOW 39 1 -8 Left 2
SYMATTR SpiceLine Vhigh=10, Vlow=-5, Ref=1
SYMATTR InstName A1
SYMBOL voltage -112 384 R0
WINDOW 123 0 0 Left 0
WINDOW 39 0 0 Left 0
SYMATTR InstName V1
SYMATTR Value PULSE(-5 10 0 1n 1n 200u 400u)
TEXT -144 504 Left 2 !.tran 800u
