Version 4
SHEET 1 1764 680
WIRE 1056 -48 992 -48
WIRE 1168 -48 1136 -48
WIRE 688 32 352 32
WIRE 688 64 688 32
WIRE 80 112 16 112
WIRE 352 112 352 32
WIRE 352 112 272 112
WIRE 368 112 352 112
WIRE 528 160 272 160
WIRE 992 160 992 -48
WIRE 992 160 944 160
WIRE 1024 160 992 160
WIRE 1168 176 1168 -48
WIRE 1168 176 1088 176
WIRE 1232 176 1168 176
WIRE 1328 176 1312 176
WIRE 1392 176 1328 176
WIRE 688 192 688 144
WIRE 1024 192 992 192
WIRE 1504 192 1456 192
WIRE 1568 192 1504 192
WIRE 400 208 272 208
WIRE 1392 208 1360 208
WIRE 400 224 400 208
WIRE 48 240 16 240
WIRE 80 240 48 240
WIRE 304 256 272 256
WIRE -112 288 -160 288
WIRE 48 288 48 240
WIRE 48 288 -32 288
WIRE 304 288 304 256
WIRE 688 304 688 272
WIRE 864 304 688 304
WIRE 992 304 992 192
WIRE 992 304 944 304
WIRE 1232 320 1184 320
WIRE 1328 320 1328 176
WIRE 1328 320 1312 320
WIRE 688 352 688 304
WIRE 992 352 992 304
WIRE 1360 400 1360 208
WIRE 1392 400 1360 400
WIRE 1504 400 1504 192
WIRE 1504 400 1472 400
WIRE 688 448 688 432
WIRE 1360 448 1360 400
WIRE 1360 544 1360 528
FLAG 448 112 0
FLAG 304 288 0
FLAG 400 288 0
FLAG 528 160 viout
FLAG 1056 144 V_SUP+
IOPIN 1056 144 In
FLAG 1056 208 V_SUP-
IOPIN 1056 208 In
FLAG 992 432 0
FLAG 1424 224 V_SUP+
IOPIN 1424 224 In
FLAG 1424 160 V_SUP-
IOPIN 1424 160 In
FLAG 1360 544 0
FLAG 1184 320 viout
FLAG 400 208 vzcr
FLAG 864 160 vzcr
FLAG 688 448 0
FLAG 1568 192 meas_out_i
IOPIN 1568 192 Out
FLAG 16 112 in
IOPIN 16 112 In
FLAG 16 240 out
IOPIN 16 240 Out
FLAG -160 288 meas_out_v
IOPIN -160 288 Out
SYMBOL ACS730 176 160 R0
SYMATTR InstName U1
SYMBOL voltage 352 112 R270
WINDOW 0 32 56 VTop 2
WINDOW 3 -32 56 VBottom 2
WINDOW 123 0 0 Left 0
WINDOW 39 0 0 Left 0
SYMATTR InstName V1
SYMATTR Value 5
SYMBOL cap 384 224 R0
SYMATTR InstName C1
SYMATTR Value 1n
SYMBOL OpAmps\\UniversalOpAmp2 1056 176 R0
SYMATTR InstName U2
SYMATTR Value2 Avol=1Meg GBW=3.5Meg Slew=20Meg
SYMATTR SpiceLine Ilimit=60m Rail=0 Vos=0
SYMATTR SpiceLine2 En=0 Enk=0 In=0 Ink=0 Rin=500G
SYMBOL res 960 144 R90
WINDOW 0 0 56 VBottom 2
WINDOW 3 32 56 VTop 2
SYMATTR InstName R1
SYMATTR Value 10k
SYMBOL res 960 288 R90
WINDOW 0 0 56 VBottom 2
WINDOW 3 32 56 VTop 2
SYMATTR InstName R2
SYMATTR Value 10k
SYMBOL res 1152 -64 R90
WINDOW 0 0 56 VBottom 2
WINDOW 3 32 56 VTop 2
SYMATTR InstName R3
SYMATTR Value 10k
SYMBOL res 1008 448 R180
WINDOW 0 36 76 Left 2
WINDOW 3 36 40 Left 2
SYMATTR InstName R4
SYMATTR Value 10k
SYMBOL res 1216 192 R270
WINDOW 0 32 56 VTop 2
WINDOW 3 0 56 VBottom 2
SYMATTR InstName R5
SYMATTR Value 10k
SYMBOL res 1216 336 R270
WINDOW 0 32 56 VTop 2
WINDOW 3 0 56 VBottom 2
SYMATTR InstName R6
SYMATTR Value 10k
SYMBOL res 1376 416 R270
WINDOW 0 32 56 VTop 2
WINDOW 3 0 56 VBottom 2
SYMATTR InstName R7
SYMATTR Value 10k
SYMBOL res 1344 432 R0
SYMATTR InstName R8
SYMATTR Value 10k
SYMBOL OpAmps\\UniversalOpAmp2 1424 192 M180
SYMATTR InstName U3
SYMATTR Value2 Avol=1Meg GBW=3.5Meg Slew=20Meg
SYMATTR SpiceLine Ilimit=60m Rail=0 Vos=0
SYMATTR SpiceLine2 En=0 Enk=0 In=0 Ink=0 Rin=500G
SYMBOL res 672 48 R0
SYMATTR InstName R9
SYMATTR Value 5k76
SYMBOL res 672 176 R0
SYMATTR InstName R10
SYMATTR Value 495
SYMBOL res 672 336 R0
SYMATTR InstName R11
SYMATTR Value 9k1
SYMBOL voltage -16 288 R90
WINDOW 0 -32 56 VBottom 2
WINDOW 3 32 56 VTop 2
WINDOW 123 0 0 Left 0
WINDOW 39 0 0 Left 0
SYMATTR InstName V2
SYMATTR Value 0
TEXT -24 376 Left 2 !.lib ./ACS730.lib
