Version 4
SHEET 1 880 680
WIRE 208 -16 128 -16
WIRE 128 96 128 -16
WIRE 384 112 368 112
WIRE 416 112 384 112
WIRE -16 144 -32 144
WIRE 80 144 64 144
WIRE 416 144 368 144
WIRE 416 176 368 176
WIRE 128 240 128 192
WIRE 176 240 128 240
FLAG 208 64 0
FLAG 176 320 0
FLAG -32 144 0
FLAG 416 144 meas_out_v
FLAG 416 176 meas_out_i
FLAG 416 112 0
FLAG 384 112 out
SYMBOL meas 224 144 R0
SYMATTR InstName X1
SYMBOL voltage 208 -32 R0
WINDOW 123 0 0 Left 0
WINDOW 39 0 0 Left 0
SYMATTR InstName V1
SYMATTR Value 10
SYMBOL voltage 176 224 R0
WINDOW 123 0 0 Left 0
WINDOW 39 0 0 Left 0
SYMATTR InstName V2
SYMATTR Value -5
SYMBOL current -16 144 R270
WINDOW 0 32 40 VTop 2
WINDOW 3 -32 40 VBottom 2
WINDOW 123 -60 40 VBottom 2
WINDOW 39 0 0 Left 0
SYMATTR InstName I1
SYMATTR Value 0
SYMATTR Value2 AC 10 0
TEXT -48 344 Left 2 !.dc I1 -25 25 100m
TEXT -48 376 Left 2 ;.ac dec 100 1k 100Meg
